/*--------------------------------*- C++ -*----------------------------------*\
| =========                 |                                                 |
| \\      /  F ield         | OpenFOAM: The Open Source CFD Toolbox           |
|  \\    /   O peration     | Version:  plus                                  |
|   \\  /    A nd           | Web:      www.OpenFOAM.com                      |
|    \\/     M anipulation  |                                                 |
\*---------------------------------------------------------------------------*/
FoamFile
{
    version     2.0;
    format      ascii;
    class       dictionary;
    location    "system";
    object      lumpedPointMovement;
}
// * * * * * * * * * * * * * * * * * * * * * * * * * * * * * * * * * * * * * //

// Reference axis for the locations
axis            (1 0 0);

// Locations of the lumped points
// 11 points
//locations       11(0.25 0.285 0.32 0.355 0.39 0.425 0.46 0.495 0.53 0.565 0.6);
// 21 points
//locations       21(0.25 0.2675 0.285 0.3025 0.32 0.3375 0.355 0.3725 0.39 0.4075 0.425 0.4425 0.46 0.4775 0.495 0.5125 0.53 0.5475 0.565 0.5825 0.6);
// 41 point
locations       41(0.25	0.25875	0.2675	0.27625	0.285	0.29375	0.3025	0.31125	0.32	0.32875	0.3375	0.34625	0.355	0.36375	0.3725	0.38125	0.39	0.39875	0.4075	0.41625	0.425	0.43375	0.4425	0.45125	0.46	0.46875	0.4775	0.48625	0.495	0.50375	0.5125	0.52125	0.53	0.53875	0.5475	0.55625	0.565	0.57375	0.5825	0.59125	0.6);

// Division for pressure forces (0-1)
//division        0.5;
division        1.0;

//- If present, the offset of patch points compared to the locations
//  Otherwise determined from the bounding box
//centre       (0.25 0.2 0.05);

//- The interpolation scheme
interpolationScheme linear;

//- Relaxation/scaling factor when updating positions
relax           0.5;


forces
{
    //- The pressure name (default: p)
    p           p;

    //- Reference pressure [Pa] (default: 0)
    pRef        0;

    //- Reference density for incompressible calculations (default: 1)
    rhoRef      1;
}


communication
{
    commsDir        "comms";

    log             on;

    waitInterval    1;

    timeOut         100;

    initByExternal  false;

    // Input file of positions/rotation, written by external application
    inputName       positions.in;

    // Output file of forces, written by OpenFOAM
    outputName      forces.out;

    inputFormat     dictionary;
    outputFormat    dictionary;

    debugTable      "$FOAM_CASE/output.txt";
}

// ************************************************************************* //
